data_image0
_chemical_formula_structural       O2CO2CO2CO2CO2CO2CCr3O3CO2CO2CO2CO2CO2CCr3OC6H4C6H4C6H4C6H4C6H4C6H4
_chemical_formula_sum              "O26 C48 Cr6 H24"
_cell_length_a       15.0255
_cell_length_b       15.0998
_cell_length_c       16.0439
_cell_angle_alpha    89.9879
_cell_angle_beta     90.2786
_cell_angle_gamma    120.18359999999998

_space_group_name_H-M_alt    "P 1"
_space_group_IT_number       1

loop_
  _space_group_symop_operation_xyz
  'x, y, z'

loop_
  _atom_site_type_symbol
  _atom_site_label
  _atom_site_symmetry_multiplicity
  _atom_site_fract_x
  _atom_site_fract_y
  _atom_site_fract_z
  _atom_site_occupancy
  O   O1        1.0  0.35684  0.51254  0.31798  1.0000
  O   O2        1.0  0.1882  0.51692  0.34515  1.0000
  C   C1        1.0  0.14109  0.56495  0.36075  1.0000
  O   O3        1.0  0.1532  0.64089  0.31763  1.0000
  O   O4        1.0  0.32687000000000005  0.8094400000000002  0.3454800000000001  1.0000
  C   C2        1.0  0.42260000000000003  0.8567800000000001  0.36146  1.0000
  O   O5        1.0  0.48671  0.84434  0.31891  1.0000
  O   O6        1.0  0.4818399999999999  0.67173  0.34617  1.0000
  C   C3        1.0  0.4334999999999999  0.57644  0.36137  1.0000
  O   O7        1.0  0.3267599999999999  0.51752  0.15234000000000006  1.0000
  O   O8        1.0  0.15286999999999998  0.51182  0.17945  1.0000
  C   C4        1.0  0.13987  0.57502  0.13592  1.0000
  O   O9        1.0  0.18763  0.67034  0.15198  1.0000
  O   O10       1.0  0.3562499999999999  0.84367  0.17995  1.0000
  C   C5        1.0  0.43317000000000005  0.8567500000000001  0.13745  1.0000
  O   O11       1.0  0.4817399999999999  0.8101  0.15325000000000005  1.0000
  O   O12       1.0  0.4866499999999999  0.64236  0.18053  1.0000
  C   C6        1.0  0.4225199999999999  0.56591  0.13728  1.0000
  Cr  Cr1       1.0  0.25888  0.52013  0.24873  1.0000
  Cr  Cr2       1.0  0.25869  0.73837  0.24877  1.0000
  Cr  Cr3       1.0  0.47879  0.73941  0.24969000000000002  1.0000
  O   O13       1.0  0.33215999999999996  0.6660100000000001  0.24911  1.0000
  O   O14       1.0  0.51773  0.32815  0.65345  1.0000
  O   O15       1.0  0.51274  0.15548  0.6806  1.0000
  C   C7        1.0  0.5768  0.14298  0.63806  1.0000
  O   O16       1.0  0.67252  0.19024  0.6540500000000001  1.0000
  O   O17       1.0  0.8462699999999997  0.35863  0.6818400000000002  1.0000
  C   C8        1.0  0.85863  0.43479  0.63891  1.0000
  O   O18       1.0  0.8117  0.48299  0.65463  1.0000
  O   O19       1.0  0.64298  0.48732  0.6814100000000002  1.0000
  C   C9        1.0  0.5662  0.42342  0.63814  1.0000
  O   O20       1.0  0.51285  0.35737  0.8191000000000003  1.0000
  O   O21       1.0  0.51774  0.18959  0.84628  1.0000
  C   C10       1.0  0.5662899999999997  0.14291000000000004  0.8620700000000002  1.0000
  O   O22       1.0  0.64323  0.15599  0.8196000000000002  1.0000
  O   O23       1.0  0.8121  0.3292  0.8474600000000002  1.0000
  C   C11       1.0  0.8592599999999998  0.42441  0.8633500000000002  1.0000
  O   O24       1.0  0.84652  0.48804  0.8204500000000002  1.0000
  O   O25       1.0  0.6726799999999998  0.48243  0.84713  1.0000
  C   C12       1.0  0.57694  0.43395  0.86224  1.0000
  Cr  Cr4       1.0  0.52074  0.26039  0.74989  1.0000
  Cr  Cr5       1.0  0.7408  0.26123  0.75074  1.0000
  Cr  Cr6       1.0  0.74076  0.47975  0.7509000000000002  1.0000
  O   O26       1.0  0.66743  0.33378  0.7505400000000002  1.0000
  C   C13       1.0  0.39447  0.94724  0.48082  1.0000
  C   C14       1.0  0.4619899999999999  0.93042  0.4319600000000001  1.0000
  C   C15       1.0  0.56765  0.98388  0.45173  1.0000
  C   C16       1.0  0.60491  0.05254000000000001  0.51867  1.0000
  C   C17       1.0  0.5373999999999998  0.06936  0.56754  1.0000
  C   C18       1.0  0.4317299999999999  0.01591  0.54777  1.0000
  H   H1        1.0  0.31266000000000005  0.9072600000000001  0.46747  1.0000
  H   H2        1.0  0.6218599999999997  0.97266  0.41554  1.0000
  H   H3        1.0  0.68672  0.09251  0.53202  1.0000
  H   H4        1.0  0.37752999999999987  0.02713  0.58397  1.0000
  C   C19       1.0  0.015379999999999961  0.58315  0.45119  1.0000
  C   C20       1.0  0.06826  0.53107  0.43156  1.0000
  C   C21       1.0  0.05197000000000007  0.44748  0.48108  1.0000
  C   C22       1.0  0.98439  0.41664  0.5485000000000002  1.0000
  C   C23       1.0  0.9314999999999998  0.46871  0.56813  1.0000
  C   C24       1.0  0.9477999999999998  0.55232  0.51862  1.0000
  H   H5        1.0  0.026259999999999964  0.64805  0.41453  1.0000
  H   H6        1.0  0.09155999999999986  0.40578  0.46789  1.0000
  H   H7        1.0  0.9735099999999998  0.35174  0.58516  1.0000
  H   H8        1.0  0.9082099999999999  0.59401  0.5318  1.0000
  C   C25       1.0  0.55253  0.60464  0.48157  1.0000
  C   C26       1.0  0.4679599999999999  0.53734  0.4318900000000001  1.0000
  C   C27       1.0  0.41564  0.43218  0.4509  1.0000
  C   C28       1.0  0.44719  0.39520000000000005  0.51791  1.0000
  C   C29       1.0  0.53176  0.4625  0.5676000000000002  1.0000
  C   C30       1.0  0.58408  0.56767  0.5485700000000002  1.0000
  H   H9        1.0  0.5944500000000001  0.6860700000000001  0.46882  1.0000
  H   H10       1.0  0.3500199999999999  0.37815  0.41407  1.0000
  H   H11       1.0  0.4052599999999999  0.31377  0.53066  1.0000
  H   H12       1.0  0.6497  0.6217  0.58541  1.0000
  C   C31       1.0  0.41521  0.98298  0.04760000000000009  1.0000
  C   C32       1.0  0.46766999999999986  0.93035  0.06725000000000003  1.0000
  C   C33       1.0  0.5525200000000001  0.9479800000000002  0.018550000000000066  1.0000
  C   C34       1.0  0.5842  0.01664  0.9519  1.0000
  C   C35       1.0  0.53176  0.06928  0.93226  1.0000
  C   C36       1.0  0.4469  0.05164  0.9809500000000002  1.0000
  H   H13       1.0  0.3493800000000001  0.9711200000000001  0.08366000000000007  1.0000
  H   H14       1.0  0.59457  0.90866  0.031809999999999894  1.0000
  H   H15       1.0  0.65003  0.0285  0.91584  1.0000
  H   H16       1.0  0.40485  0.09097  0.9676900000000003  1.0000
  C   C37       1.0  0.018140000000000045  0.43354  0.05115000000000003  1.0000
  C   C38       1.0  0.07254000000000004  0.5391  0.07111000000000002  1.0000
  C   C39       1.0  0.05535000000000001  0.606  0.020960000000000093  1.0000
  C   C40       1.0  0.98666  0.56874  0.95367  1.0000
  C   C41       1.0  0.93301  0.46369  0.93422  1.0000
  C   C42       1.0  0.94955  0.39661  0.9837900000000003  1.0000
  H   H17       1.0  0.028270000000000014  0.3786  0.08732999999999991  1.0000
  H   H18       1.0  0.09492999999999996  0.68765  0.033239999999999936  1.0000
  H   H19       1.0  0.97557  0.62261  0.91689  1.0000
  H   H20       1.0  0.9093099999999998  0.31518  0.97069  1.0000
  C   C43       1.0  0.56764  0.58394  0.048390000000000155  1.0000
  C   C44       1.0  0.4619399999999999  0.53173  0.06712000000000007  1.0000
  C   C45       1.0  0.39445999999999987  0.44739  0.017610000000000126  1.0000
  C   C46       1.0  0.4317899999999999  0.41597  0.95107  1.0000
  C   C47       1.0  0.5374899999999999  0.46817  0.93235  1.0000
  C   C48       1.0  0.60496  0.55252  0.98185  1.0000
  H   H21       1.0  0.62182  0.64938  0.08509999999999995  1.0000
  H   H22       1.0  0.31262999999999996  0.40554  0.030160000000000187  1.0000
  H   H23       1.0  0.3776  0.35053  0.91436  1.0000
  H   H24       1.0  0.6867999999999997  0.59437  0.9693  1.0000
