data_image0
_chemical_formula_structural       O2CO2CO2CO2CO2CO2CCr3O3CO2CO2CO2CO2CO2CCr3OC8H6C8H6C8H6C8H6C8H6C8H6
_chemical_formula_sum              "O26 C60 Cr6 H36"
_cell_length_a       14.6656
_cell_length_b       14.705599999999999
_cell_length_c       15.894800000000002
_cell_angle_alpha    89.9562
_cell_angle_beta     90.18029999999999
_cell_angle_gamma    120.1344

_space_group_name_H-M_alt    "P 1"
_space_group_IT_number       1

loop_
  _space_group_symop_operation_xyz
  'x, y, z'

loop_
  _atom_site_type_symbol
  _atom_site_label
  _atom_site_symmetry_multiplicity
  _atom_site_fract_x
  _atom_site_fract_y
  _atom_site_fract_z
  _atom_site_occupancy
  O   O1        1.0  0.3675300000000001  0.5146500000000002  0.318  1.0000
  O   O2        1.0  0.19490999999999994  0.51589  0.35292  1.0000
  C   C1        1.0  0.14441000000000007  0.5626600000000002  0.3696  1.0000
  O   O3        1.0  0.15134000000000009  0.6379400000000002  0.32528  1.0000
  O   O4        1.0  0.32857  0.81367  0.34702  1.0000
  C   C2        1.0  0.42750000000000005  0.8640900000000001  0.35887  1.0000
  O   O5        1.0  0.49175  0.8537100000000002  0.31188  1.0000
  O   O6        1.0  0.4934599999999999  0.68054  0.3411499999999999  1.0000
  C   C3        1.0  0.44648  0.58358  0.35929  1.0000
  O   O7        1.0  0.32427  0.51294  0.15242  1.0000
  O   O8        1.0  0.1467  0.50367  0.18786  1.0000
  C   C4        1.0  0.13101000000000004  0.5661600000000001  0.14277  1.0000
  O   O9        1.0  0.17785  0.6644500000000001  0.15668  1.0000
  O   O10       1.0  0.3490699999999999  0.8452  0.17896  1.0000
  C   C5        1.0  0.42487  0.85787  0.13229  1.0000
  O   O11       1.0  0.4768399999999999  0.81162  0.14542  1.0000
  O   O12       1.0  0.4888999999999999  0.64331  0.17411  1.0000
  C   C6        1.0  0.42105  0.56349  0.13307  1.0000
  Cr  Cr1       1.0  0.26097  0.51718  0.25267  1.0000
  Cr  Cr2       1.0  0.25444  0.73776  0.2519  1.0000
  Cr  Cr3       1.0  0.48237999999999986  0.74448  0.24330999999999994  1.0000
  O   O13       1.0  0.33264  0.66651  0.24932999999999994  1.0000
  O   O14       1.0  0.52282  0.33521  0.64591  1.0000
  O   O15       1.0  0.51065  0.15464  0.67367  1.0000
  C   C7        1.0  0.57839  0.14278  0.63282  1.0000
  O   O16       1.0  0.67517  0.18904000000000007  0.65259  1.0000
  O   O17       1.0  0.8526999999999998  0.35749  0.6886  1.0000
  C   C8        1.0  0.86796  0.4360800000000001  0.64452  1.0000
  O   O18       1.0  0.8217099999999998  0.4877600000000001  0.65874  1.0000
  O   O19       1.0  0.6503799999999998  0.49662  0.68065  1.0000
  C   C9        1.0  0.57475  0.43357  0.63337  1.0000
  O   O20       1.0  0.50788  0.3614100000000001  0.81246  1.0000
  O   O21       1.0  0.50632  0.18643000000000007  0.8408  1.0000
  C   C10       1.0  0.55348  0.13663  0.85899  1.0000
  O   O22       1.0  0.63257  0.14709  0.81809  1.0000
  O   O23       1.0  0.8053399999999997  0.32101  0.85362  1.0000
  C   C11       1.0  0.8558799999999998  0.41823  0.87112  1.0000
  O   O24       1.0  0.8484099999999998  0.4867500000000001  0.82735  1.0000
  O   O25       1.0  0.67099  0.4845700000000001  0.84872  1.0000
  C   C12       1.0  0.57207  0.4359  0.85997  1.0000
  Cr  Cr4       1.0  0.51729  0.26199  0.74341  1.0000
  Cr  Cr5       1.0  0.73883  0.25645  0.75311  1.0000
  Cr  Cr6       1.0  0.74513  0.4836100000000001  0.75375  1.0000
  O   O26       1.0  0.6670799999999998  0.33400000000000013  0.75012  1.0000
  C   C13       1.0  0.47046999999999994  0.9399400000000001  0.4315  1.0000
  C   C14       1.0  0.5911499999999997  0.99616  0.44264  1.0000
  C   C15       1.0  0.6277799999999998  0.06357000000000002  0.50909  1.0000
  C   C16       1.0  0.54065  0.069  0.55878  1.0000
  C   C17       1.0  0.4818899999999999  0.09677  0.49253  1.0000
  C   C18       1.0  0.44508  0.02919  0.42604  1.0000
  C   C19       1.0  0.42628000000000005  0.8871200000000001  0.5168599999999998  1.0000
  C   C20       1.0  0.4628399999999999  0.9546000000000001  0.58335  1.0000
  H   H1        1.0  0.64374  0.9845600000000001  0.40194  1.0000
  H   H2        1.0  0.7111799999999998  0.1089  0.52425  1.0000
  H   H3        1.0  0.4707599999999999  0.16422  0.49729  1.0000
  H   H4        1.0  0.40259  0.0389  0.3740099999999999  1.0000
  H   H5        1.0  0.37182000000000004  0.8035100000000001  0.52443  1.0000
  H   H6        1.0  0.4394699999999999  0.92869  0.64769  1.0000
  C   C21       1.0  0.07137999999999979  0.5271  0.44403  1.0000
  C   C22       1.0  0.9564999999999998  0.49041  0.41997  1.0000
  C   C23       1.0  0.8897699999999997  0.46013  0.48679  1.0000
  C   C24       1.0  0.9436400000000001  0.46903000000000006  0.57193  1.0000
  C   C25       1.0  0.9990999999999998  0.40435  0.56078  1.0000
  C   C26       1.0  0.06582  0.4347  0.49403  1.0000
  C   C27       1.0  0.10057999999999966  0.61413  0.50986  1.0000
  C   C28       1.0  0.03379999999999983  0.58373  0.57678  1.0000
  H   H7        1.0  0.9297999999999997  0.4878500000000001  0.35576  1.0000
  H   H8        1.0  0.8060400000000001  0.4317300000000001  0.47965  1.0000
  H   H9        1.0  0.9875299999999998  0.34033  0.60172  1.0000
  H   H10       1.0  0.1102799999999997  0.39617  0.47868  1.0000
  H   H11       1.0  0.16823999999999992  0.6928  0.50443  1.0000
  H   H12       1.0  0.044499999999999956  0.6363200000000001  0.62857  1.0000
  C   C29       1.0  0.48431999999999986  0.54684  0.43282  1.0000
  C   C30       1.0  0.5792399999999998  0.6335200000000002  0.4814  1.0000
  C   C31       1.0  0.6101199999999998  0.59703  0.54801  1.0000
  C   C32       1.0  0.54331  0.4770200000000001  0.56024  1.0000
  C   C33       1.0  0.42934  0.45443  0.56639  1.0000
  C   C34       1.0  0.3985399999999999  0.49096  0.49988  1.0000
  C   C35       1.0  0.51813  0.46697000000000005  0.40855  1.0000
  C   C36       1.0  0.54903  0.43051  0.47517  1.0000
  H   H13       1.0  0.6190199999999998  0.71637  0.46514  1.0000
  H   H14       1.0  0.67608  0.64913  0.58792  1.0000
  H   H15       1.0  0.37760000000000005  0.41407000000000005  0.61902  1.0000
  H   H16       1.0  0.32046999999999987  0.48186  0.49577  1.0000
  H   H17       1.0  0.5188199999999997  0.44215  0.34436  1.0000
  H   H18       1.0  0.5761999999999998  0.3745400000000001  0.46789  1.0000
  C   C37       1.0  0.45648000000000005  0.93278  0.05928  1.0000
  C   C38       1.0  0.38955  0.98573  0.04655000000000009  1.0000
  C   C39       1.0  0.42052  0.0532  0.98016  1.0000
  C   C40       1.0  0.51566  0.06182  0.93223  1.0000
  C   C41       1.0  0.60127  0.09189000000000003  0.99988  1.0000
  C   C42       1.0  0.5703799999999998  0.02444  0.06620000000000002  1.0000
  C   C43       1.0  0.4511099999999999  0.88067  0.97419  1.0000
  C   C44       1.0  0.4821099999999999  0.9481700000000001  0.90776  1.0000
  H   H19       1.0  0.32341999999999993  0.9716300000000001  0.08597999999999995  1.0000
  H   H20       1.0  0.38061999999999996  0.09608  0.96363  1.0000
  H   H21       1.0  0.6793200000000001  0.16103000000000006  0.99629  1.0000
  H   H22       1.0  0.622  0.03590000000000001  0.11918000000000006  1.0000
  H   H23       1.0  0.4241  0.79754  0.96674  1.0000
  H   H24       1.0  0.48166999999999993  0.9227600000000001  0.84356  1.0000
  C   C45       1.0  0.058219999999999945  0.52479  0.07349000000000006  1.0000
  C   C46       1.0  0.005020000000000042  0.4101500000000001  0.06302999999999992  1.0000
  C   C47       1.0  0.9343599999999997  0.37224  0.99283  1.0000
  C   C48       1.0  0.9297799999999998  0.45561  0.94598  1.0000
  C   C49       1.0  0.9021999999999998  0.51069  0.008389999999999898  1.0000
  C   C50       1.0  0.9729699999999998  0.5488  0.07881999999999989  1.0000
  C   C51       1.0  0.10953999999999996  0.5677000000000001  0.99273  1.0000
  C   C52       1.0  0.03868999999999989  0.52954  0.92252  1.0000
  H   H25       1.0  0.015649999999999963  0.3568900000000001  0.10382999999999987  1.0000
  H   H26       1.0  0.8890099999999997  0.28912  0.97756  1.0000
  H   H27       1.0  0.83388  0.5207200000000001  0.003449999999999953  1.0000
  H   H28       1.0  0.9619399999999999  0.5895500000000001  0.13132999999999995  1.0000
  H   H29       1.0  0.19357  0.6218  0.98533  1.0000
  H   H30       1.0  0.06494  0.55252  0.85816  1.0000
  C   C53       1.0  0.45874999999999994  0.52735  0.059290000000000065  1.0000
  C   C54       1.0  0.53701  0.4914300000000001  0.08425999999999999  1.0000
  C   C55       1.0  0.57363  0.46058  0.01797000000000004  1.0000
  C   C56       1.0  0.52902  0.46858  0.93242  1.0000
  C   C57       1.0  0.40838999999999986  0.40356  0.94319  1.0000
  C   C58       1.0  0.37170999999999993  0.4342800000000001  0.00943000000000005  1.0000
  C   C59       1.0  0.51703  0.6137800000000001  0.99312  1.0000
  C   C60       1.0  0.5538799999999999  0.5830700000000001  0.92685  1.0000
  H   H31       1.0  0.5606899999999998  0.48935  0.14870000000000005  1.0000
  H   H32       1.0  0.62852  0.43202  0.02581999999999995  1.0000
  H   H33       1.0  0.35588  0.33899  0.90243  1.0000
  H   H34       1.0  0.28834999999999994  0.39582000000000006  0.024370000000000003  1.0000
  H   H35       1.0  0.52784  0.6922600000000002  0.99777  1.0000
  H   H36       1.0  0.5960899999999998  0.6352200000000001  0.8749  1.0000
