data_image0
_chemical_formula_structural       O2CO2CO2CO2CO2CO2CCr3O3CO2CO2CO2CO2CO2CCr3OC8H6C8H6C8H6C8H6C8H6C8H6
_chemical_formula_sum              "O26 C60 Cr6 H36"
_cell_length_a       14.8115
_cell_length_b       14.914799999999998
_cell_length_c       16.2029
_cell_angle_alpha    89.904
_cell_angle_beta     90.2668
_cell_angle_gamma    120.0433

_space_group_name_H-M_alt    "P 1"
_space_group_IT_number       1

loop_
  _space_group_symop_operation_xyz
  'x, y, z'

loop_
  _atom_site_type_symbol
  _atom_site_label
  _atom_site_symmetry_multiplicity
  _atom_site_fract_x
  _atom_site_fract_y
  _atom_site_fract_z
  _atom_site_occupancy
  O   O1        1.0  0.34228  0.52208  0.33168  1.0000
  O   O2        1.0  0.16462000000000007  0.5115900000000001  0.30203  1.0000
  C   C1        1.0  0.15453000000000003  0.57723  0.34511  1.0000
  O   O3        1.0  0.19866  0.67259  0.3267000000000001  1.0000
  O   O4        1.0  0.36471000000000003  0.8488100000000001  0.29329  1.0000
  C   C2        1.0  0.44246000000000013  0.86411  0.33714  1.0000
  O   O5        1.0  0.4931100000000001  0.8179200000000002  0.32422  1.0000
  O   O6        1.0  0.50316  0.65055  0.30481  1.0000
  C   C3        1.0  0.43867  0.57497  0.3488400000000001  1.0000
  O   O7        1.0  0.3721700000000001  0.5109100000000001  0.16845  1.0000
  O   O8        1.0  0.19892  0.51059  0.13836  1.0000
  C   C4        1.0  0.14686  0.55503  0.12243000000000002  1.0000
  O   O9        1.0  0.15838000000000005  0.63267  0.16381  1.0000
  O   O10       1.0  0.33148  0.80373  0.13081  1.0000
  C   C5        1.0  0.4280700000000001  0.8506100000000002  0.11394  1.0000
  O   O11       1.0  0.49546000000000007  0.8438400000000001  0.15851  1.0000
  O   O12       1.0  0.49755000000000005  0.6717500000000001  0.1395  1.0000
  C   C6        1.0  0.45064  0.57501  0.12663000000000005  1.0000
  Cr  Cr1       1.0  0.27215000000000006  0.5191500000000001  0.23491  1.0000
  Cr  Cr2       1.0  0.26601  0.73686  0.22866  1.0000
  Cr  Cr3       1.0  0.4919  0.74335  0.23169  1.0000
  O   O13       1.0  0.34358  0.66645  0.23135  1.0000
  O   O14       1.0  0.52551  0.36671  0.6686300000000002  1.0000
  O   O15       1.0  0.52594  0.19568  0.6347900000000002  1.0000
  C   C7        1.0  0.57419  0.14803  0.617  1.0000
  O   O16       1.0  0.6512400000000002  0.15706000000000006  0.65894  1.0000
  O   O17       1.0  0.8257200000000001  0.3297600000000001  0.63849  1.0000
  C   C8        1.0  0.8757200000000002  0.4264100000000001  0.62547  1.0000
  O   O18       1.0  0.8626800000000001  0.49045000000000005  0.6681500000000001  1.0000
  O   O19       1.0  0.68866  0.4900100000000001  0.64201  1.0000
  C   C9        1.0  0.59155  0.44472  0.62752  1.0000
  O   O20       1.0  0.52958  0.32798  0.8312  1.0000
  O   O21       1.0  0.51837  0.152  0.79713  1.0000
  C   C10       1.0  0.58163  0.13467  0.83777  1.0000
  O   O22       1.0  0.67871  0.18218  0.82407  1.0000
  O   O23       1.0  0.8567800000000001  0.3508800000000001  0.80371  1.0000
  C   C11       1.0  0.86939  0.42669  0.84804  1.0000
  O   O24       1.0  0.8256300000000001  0.4791900000000001  0.83207  1.0000
  O   O25       1.0  0.65764  0.48903  0.80639  1.0000
  C   C12       1.0  0.5814700000000002  0.42339  0.84948  1.0000
  Cr  Cr4       1.0  0.53031  0.2633  0.7329  1.0000
  Cr  Cr5       1.0  0.75043  0.25783  0.73132  1.0000
  Cr  Cr6       1.0  0.75588  0.4817300000000001  0.73693  1.0000
  O   O26       1.0  0.67901  0.33423000000000014  0.73344  1.0000
  C   C13       1.0  0.55891  0.95801  0.45694000000000007  1.0000
  C   C14       1.0  0.4755400000000001  0.9391200000000001  0.40571  1.0000
  C   C15       1.0  0.42294000000000004  0.9938400000000001  0.42538  1.0000
  C   C16       1.0  0.4544900000000001  0.062480000000000015  0.4940300000000001  1.0000
  C   C17       1.0  0.5393300000000001  0.07802000000000003  0.54496  1.0000
  C   C18       1.0  0.58892  0.023380000000000005  0.5225300000000003  1.0000
  C   C19       1.0  0.67329  0.00193  0.5472  1.0000
  C   C20       1.0  0.63898  0.92749  0.47291  1.0000
  H   H1        1.0  0.35711000000000004  0.9832000000000001  0.38853  1.0000
  H   H2        1.0  0.41209  0.10244000000000003  0.50723  1.0000
  H   H3        1.0  0.65779  0.9619500000000001  0.6078  1.0000
  H   H4        1.0  0.75217  0.07108  0.54022  1.0000
  H   H5        1.0  0.60354  0.8446600000000001  0.49077  1.0000
  H   H6        1.0  0.6981  0.95349  0.42305  1.0000
  C   C21       1.0  0.07048999999999996  0.60697  0.46817  1.0000
  C   C22       1.0  0.08945000000000025  0.54029  0.42005  1.0000
  C   C23       1.0  0.04939000000000009  0.4378400000000001  0.44864  1.0000
  C   C24       1.0  0.98253  0.40136000000000005  0.51723  1.0000
  C   C25       1.0  0.95439  0.46656  0.55913  1.0000
  C   C26       1.0  0.004529999999999921  0.57098  0.53584  1.0000
  C   C27       1.0  0.9601800000000003  0.6393500000000002  0.51737  1.0000
  C   C28       1.0  0.032480000000000016  0.6788  0.44327  1.0000
  H   H7        1.0  0.0664300000000002  0.38453000000000004  0.41637  1.0000
  H   H8        1.0  0.94975  0.32105000000000006  0.53517  1.0000
  H   H9        1.0  0.9804600000000003  0.6992700000000002  0.5657700000000002  1.0000
  H   H10       1.0  0.87613  0.5949300000000001  0.50023  1.0000
  H   H11       1.0  0.09437999999999994  0.7614  0.44908  1.0000
  H   H12       1.0  0.99044  0.65735  0.38308  1.0000
  C   C29       1.0  0.40984000000000004  0.46599000000000007  0.47441  1.0000
  C   C30       1.0  0.4775400000000001  0.5483000000000001  0.42374  1.0000
  C   C31       1.0  0.58271  0.60746  0.44932  1.0000
  C   C32       1.0  0.61987  0.57629  0.5175  1.0000
  C   C33       1.0  0.55254  0.4855200000000001  0.56177  1.0000
  C   C34       1.0  0.44633000000000006  0.43538  0.5414400000000003  1.0000
  C   C35       1.0  0.37091000000000013  0.32335000000000014  0.5263  1.0000
  C   C36       1.0  0.3308  0.35697  0.45281  1.0000
  H   H13       1.0  0.6373300000000001  0.67527  0.41483  1.0000
  H   H14       1.0  0.70198  0.62071  0.5330800000000002  1.0000
  H   H15       1.0  0.31284  0.28824  0.57672  1.0000
  H   H16       1.0  0.41009  0.27923  0.50858  1.0000
  H   H17       1.0  0.24970000000000006  0.3413600000000001  0.46101  1.0000
  H   H18       1.0  0.34656  0.33225  0.39244  1.0000
  C   C37       1.0  0.39857  0.93899  0.9933900000000001  1.0000
  C   C38       1.0  0.4645800000000001  0.91544  0.038960000000000106  1.0000
  C   C39       1.0  0.56651  0.95267  0.008809999999999985  1.0000
  C   C40       1.0  0.60374  0.02106  0.94132  1.0000
  C   C41       1.0  0.53991  0.05388  0.90228  1.0000
  C   C42       1.0  0.4354500000000001  0.00677  0.9268800000000003  1.0000
  C   C43       1.0  0.37134000000000006  0.054700000000000006  0.9492400000000002  1.0000
  C   C44       1.0  0.3308  0.98042  0.0219100000000001  1.0000
  H   H19       1.0  0.6190400000000003  0.93231  0.03923000000000032  1.0000
  H   H20       1.0  0.68382  0.05154000000000001  0.9222000000000002  1.0000
  H   H21       1.0  0.31038  0.03913  0.90215  1.0000
  H   H22       1.0  0.41989  0.13721000000000003  0.96798  1.0000
  H   H23       1.0  0.2465100000000001  0.9220700000000001  0.016559999999999908  1.0000
  H   H24       1.0  0.35546  0.019840000000000007  0.08284000000000002  1.0000
  C   C45       1.0  0.016210000000000054  0.5652  0.04153000000000007  1.0000
  C   C46       1.0  0.07512000000000009  0.51786  0.0611600000000001  1.0000
  C   C47       1.0  0.05437000000000008  0.4292900000000001  0.01424000000000003  1.0000
  C   C48       1.0  0.98591  0.39790000000000003  0.94584  1.0000
  C   C49       1.0  0.93671  0.45421  0.92217  1.0000
  C   C50       1.0  0.94902  0.53413  0.9744  1.0000
  C   C51       1.0  0.97547  0.6423800000000002  0.95477  1.0000
  C   C52       1.0  0.04949000000000008  0.6767400000000002  0.028240000000000043  1.0000
  H   H25       1.0  0.09352999999999992  0.3861100000000001  0.028059999999999974  1.0000
  H   H26       1.0  0.9748  0.33198  0.90986  1.0000
  H   H27       1.0  0.90793  0.6544200000000001  0.9639  1.0000
  H   H28       1.0  0.015980000000000116  0.66983  0.89458  1.0000
  H   H29       1.0  0.024790000000000072  0.70897  0.07952000000000004  1.0000
  H   H30       1.0  0.13297000000000003  0.72389  0.010639999999999983  1.0000
  C   C53       1.0  0.4336  0.43058  0.03693999999999997  1.0000
  C   C54       1.0  0.49014  0.53449  0.061549999999999994  1.0000
  C   C55       1.0  0.58613  0.59861  0.022070000000000256  1.0000
  C   C56       1.0  0.6173600000000001  0.5618400000000001  0.95429  1.0000
  C   C57       1.0  0.55313  0.46023  0.9242  1.0000
  C   C58       1.0  0.46433  0.3943100000000001  0.97004  1.0000
  C   C59       1.0  0.3543800000000001  0.32587000000000005  0.94204  1.0000
  C   C60       1.0  0.32077  0.3655  0.01533999999999991  1.0000
  H   H31       1.0  0.63515  0.6783600000000001  0.041220000000000034  1.0000
  H   H32       1.0  0.68981  0.61434  0.92369  1.0000
  H   H33       1.0  0.32977  0.24242000000000005  0.94697  1.0000
  H   H34       1.0  0.33778  0.34988  0.8814500000000002  1.0000
  H   H35       1.0  0.27716  0.30490000000000006  0.06248999999999994  1.0000
  H   H36       1.0  0.2846  0.41249  0.9973500000000001  1.0000
